LVTestCase/Loads3M.txt
New Load.LOAD1 Phases=1 Bus1=10.1 kV=0.23 kW=3.585 kvar=0.695
New Load.LOAD2 Phases=1 Bus1=5.3 kV=0.23 kW=4.050 kvar=0.751
New Load.LOAD3 Phases=1 Bus1=7.1 kV=0.23 kW=2.880 kvar=0.695
New Load.LOAD4 Phases=1 Bus1=13.3 kV=0.23 kW=3.700 kvar=0.656
New Load.LOAD5 Phases=1 Bus1=11.3 kV=0.23 kW=8.493 kvar=1.568
New Load.LOAD6 Phases=1 Bus1=12.1 kV=0.23 kW=5.470 kvar=1.565
New Load.LOAD7 Phases=1 Bus1=21.3 kV=0.23 kW=2.497 kvar=0.347
New Load.LOAD8 Phases=1 Bus1=25.2 kV=0.23 kW=6.610 kvar=1.598
New Load.LOAD9 Phases=1 Bus1=33.1 kV=0.23 kW=2.410 kvar=0.588
New Load.LOAD10 Phases=1 Bus1=26.3 kV=0.23 kW=6.255 kvar=0.712
New Load.LOAD11 Phases=1 Bus1=29.3 kV=0.23 kW=11.755 kvar=0.768
New Load.LOAD12 Phases=1 Bus1=30.2 kV=0.23 kW=6.405 kvar=1.135
New Load.LOAD13 Phases=3 Bus1=37.1.2.3 kV=0.23 kW=9.000 kvar=2.791
New Load.LOAD14 Phases=1 Bus1=34.2 kV=0.23 kW=1.710 kvar=0.426
New Load.LOAD15 Phases=1 Bus1=39.2 kV=0.23 kW=12.505 kvar=0.954
New Load.LOAD16 Phases=1 Bus1=40.2 kV=0.23 kW=6.015 kvar=1.044
New Load.LOAD17 Phases=1 Bus1=42.1 kV=0.23 kW=3.652 kvar=1.070
New Load.LOAD18 Phases=1 Bus1=49.1 kV=0.23 kW=8.585 kvar=1.070
New Load.LOAD19 Phases=1 Bus1=46.2 kV=0.23 kW=5.945 kvar=1.028
New Load.LOAD20 Phases=1 Bus1=50.2 kV=0.23 kW=3.290 kvar=0.802
New Load.LOAD21 Phases=1 Bus1=47.1 kV=0.23 kW=5.645 kvar=1.030
New Load.LOAD22 Phases=1 Bus1=45.3 kV=0.23 kW=6.770 kvar=1.403
New Load.LOAD23 Phases=1 Bus1=52.2 kV=0.23 kW=2.470 kvar=0.605
New Load.LOAD24 Phases=3 Bus1=76.1.2.3 kV=0.23 kW=9.000 kvar=2.791
New Load.LOAD25 Phases=1 Bus1=67.1 kV=0.23 kW=2.551 kvar=0.626
New Load.LOAD26 Phases=1 Bus1=57.2 kV=0.23 kW=6.395 kvar=1.137
New Load.LOAD27 Phases=1 Bus1=72.3 kV=0.23 kW=10.815 kvar=0.549
New Load.LOAD28 Phases=1 Bus1=66.1 kV=0.23 kW=1.430 kvar=0.381
New Load.LOAD29 Phases=1 Bus1=81.3 kV=0.23 kW=5.135 kvar=0.598
New Load.LOAD30 Phases=1 Bus1=80.3 kV=0.23 kW=7.120 kvar=1.479
New Load.LOAD31 Phases=1 Bus1=75.1 kV=0.23 kW=1.860 kvar=0.695
New Load.LOAD32 Phases=1 Bus1=77.1 kV=0.23 kW=2.050 kvar=0.751
New Load.LOAD33 Phases=1 Bus1=54.2 kV=0.23 kW=3.853 kvar=0.695
New Load.LOAD34 Phases=1 Bus1=64.3 kV=0.23 kW=3.700 kvar=0.656
New Load.LOAD35 Phases=1 Bus1=62.1 kV=0.23 kW=6.207 kvar=1.696
New Load.LOAD36 Phases=3 Bus1=60.1.2.3 kV=0.23 kW=9.000 kvar=2.791
New Load.LOAD37 Phases=1 Bus1=97.3 kV=0.23 kW=2.330 kvar=0.347
New Load.LOAD38 Phases=1 Bus1=73.1 kV=0.23 kW=5.335 kvar=0.963
New Load.LOAD39 Phases=1 Bus1=83.3 kV=0.23 kW=11.035 kvar=0.588
New Load.LOAD40 Phases=1 Bus1=103.1 kV=0.23 kW=3.735 kvar=0.751
New Load.LOAD41 Phases=1 Bus1=106.3 kV=0.23 kW=4.130 kvar=0.768
New Load.LOAD42 Phases=1 Bus1=107.3 kV=0.23 kW=5.250 kvar=1.035
New Load.LOAD43 Phases=1 Bus1=95.1 kV=0.23 kW=12.065 kvar=1.082
New Load.LOAD44 Phases=1 Bus1=87.1 kV=0.23 kW=2.435 kvar=0.426
New Load.LOAD45 Phases=1 Bus1=88.3 kV=0.23 kW=4.780 kvar=0.930
New Load.LOAD46 Phases=1 Bus1=115.2 kV=0.23 kW=4.562 kvar=1.044
New Load.LOAD47 Phases=1 Bus1=112.1 kV=0.23 kW=8.625 kvar=1.084
New Load.LOAD48 Phases=1 Bus1=93.3 kV=0.23 kW=6.205 kvar=1.089
New Load.LOAD49 Phases=1 Bus1=102.3 kV=0.23 kW=5.350 kvar=1.061
New Load.LOAD50 Phases=1 Bus1=96.2 kV=0.23 kW=5.705 kvar=0.802
New Load.LOAD51 Phases=1 Bus1=104.2 kV=0.23 kW=4.670 kvar=1.135
New Load.LOAD52 Phases=1 Bus1=113.1 kV=0.23 kW=2.321 kvar=0.547
New Load.LOAD53 Phases=1 Bus1=116.2 kV=0.23 kW=6.480 kvar=1.565
New Load.LOAD54 Phases=1 Bus1=110.2 kV=0.23 kW=4.825 kvar=0.768
New Load.LOAD55 Phases=1 Bus1=114.2 kV=0.23 kW=12.825 kvar=1.035